[TITLE]

[JUNCTIONS]
;ID                      Elevation       Demand Pattern                 
 N0                                 0               0                            ;
 N1                                 0               0                            ;
 N2                                 0    37.549121998                            ;
 PWFn2                              0   -36.690562828                            ;
 N3                                 0               0                            ;
 N4                                 0    52.537216913                            ;
 PWFn4                              0   -36.690562828                            ;
 N5                                 0               0                            ;
 N6                                 0               0                            ;
 N7                                 0               0                            ;
 N8                                 0               0                            ;
 N9                                 0               0                            ;
 N11                                0               0                            ;
 N12                                0               0                            ;
 N13                                0               0                            ;
 N14                                0               0                            ;
 N15                                0               0                            ;
 N16                                0    56.323682997                            ;
 PWFn16                             0   -36.690562828                            ;
 N17                                0               0                            ;
 N18                                0               0                            ;
 N19                                0               0                            ;
 N20                                0    17.512405638                            ;
 PWFn20                             0   -36.690562828                            ;
 f0t1Leak                           0               0                            ;
 f0t7Leak                           0               0                            ;
 f1t0Leak                           0               0                            ;
 f1t8Leak                           0               0                            ;
 f1t2Leak                           0               0                            ;
 f2t1Leak                           0               0                            ;
 f2t9Leak                           0               0                            ;
 f2t3Leak                           0               0                            ;
 f3t2Leak                           0               0                            ;
 f3t4Leak                           0               0                            ;
 f4t3Leak                           0               0                            ;
 f4t11Leak                          0               0                            ;
 f4t5Leak                           0               0                            ;
 f5t4Leak                           0               0                            ;
 f5t6Leak                           0               0                            ;
 f5t12Leak                          0               0                            ;
 f6t5Leak                           0               0                            ;
 f6t13Leak                          0               0                            ;
 f7t0Leak                           0               0                            ;
 f7t8Leak                           0               0                            ;
 f7t14Leak                          0               0                            ;
 f8t7Leak                           0               0                            ;
 f8t1Leak                           0               0                            ;
 f8t9Leak                           0               0                            ;
 f9t2Leak                           0               0                            ;
 f9t8Leak                           0               0                            ;
 f9t16Leak                          0               0                            ;
 f11t4Leak                          0               0                            ;
 f11t18Leak                         0               0                            ;
 f11t12Leak                         0               0                            ;
 f12t5Leak                          0               0                            ;
 f12t11Leak                         0               0                            ;
 f12t13Leak                         0               0                            ;
 f12t19Leak                         0               0                            ;
 f13t6Leak                          0               0                            ;
 f13t12Leak                         0               0                            ;
 f13t20Leak                         0               0                            ;
 f14t7Leak                          0               0                            ;
 f14t15Leak                         0               0                            ;
 f15t14Leak                         0               0                            ;
 f15t16Leak                         0               0                            ;
 f16t9Leak                          0               0                            ;
 f16t15Leak                         0               0                            ;
 f16t17Leak                         0               0                            ;
 f17t16Leak                         0               0                            ;
 f17t18Leak                         0               0                            ;
 f18t17Leak                         0               0                            ;
 f18t11Leak                         0               0                            ;
 f18t19Leak                         0               0                            ;
 f19t18Leak                         0               0                            ;
 f19t12Leak                         0               0                            ;
 f19t20Leak                         0               0                            ;
 f20t13Leak                         0               0                            ;
 f20t19Leak                         0               0                            ;

[RESERVOIRS]
;ID                                   Head                  Pattern
 RES2                               0                            ;
 RES4                               0                            ;
 RES16                              0                            ;
 RES20                              0                            ;

[TANKS]
;ID                              Elevation           Init Level            Min Level            Max Level             Diameter           Min Volume Volume Curve         Overflow            

[PIPES]
;ID                   Node1                Node2                              Length             Diameter            Roughness           Minor Loss               Status
 f0t1                 N0                   f0t1Leak                         500     393.7007874             100               0                 Open   ;
 f0t1_L               f0t1Leak             N1                               500     393.7007874             100               0                 Open   ;
 f0t7                 N0                   f0t7Leak                         500     393.7007874             100               0                 Open   ;
 f0t7_L               f0t7Leak             N7                               500     393.7007874             100               0                 Open   ;
 RES2PWFn2            RES2                 PWFn2                           1000              12             100               0                 Open   ;
 PWFn2tr2             PWFn2                N2                              1000              12             100               0                 Open   ;
 fn2PWFn2             N2                   PWFn2                           1000              12             100               0                 Open   ;
 RES4PWFn4            RES4                 PWFn4                           1000              12             100               0                 Open   ;
 PWFn4tr4             PWFn4                N4                              1000              12             100               0                 Open   ;
 fn4PWFn4             N4                   PWFn4                           1000              12             100               0                 Open   ;
 RES16PWFn16          RES16                PWFn16                          1000              12             100               0                 Open   ;
 PWFn16tr16           PWFn16               N16                             1000              12             100               0                 Open   ;
 fn16PWFn16           N16                  PWFn16                          1000              12             100               0                 Open   ;
 RES20PWFn20          RES20                PWFn20                          1000              12             100               0                 Open   ;
 PWFn20tr20           PWFn20               N20                             1000              12             100               0                 Open   ;
 fn20PWFn20           N20                  PWFn20                          1000              12             100               0                 Open   ;
 f1t0                 N1                   f1t0Leak                         500     393.7007874             100               0                 Open   ;
 f1t0_L               f1t0Leak             N0                               500     393.7007874             100               0                 Open   ;
 f1t8                 N1                   f1t8Leak                         500     393.7007874             100               0                 Open   ;
 f1t8_L               f1t8Leak             N8                               500     393.7007874             100               0                 Open   ;
 f1t2                 N1                   f1t2Leak                         500     393.7007874             100               0                 Open   ;
 f1t2_L               f1t2Leak             N2                               500     393.7007874             100               0                 Open   ;
 f2t1                 N2                   f2t1Leak                         500     393.7007874             100               0                 Open   ;
 f2t1_L               f2t1Leak             N1                               500     393.7007874             100               0                 Open   ;
 f2t9                 N2                   f2t9Leak                         500     393.7007874             100               0                 Open   ;
 f2t9_L               f2t9Leak             N9                               500     393.7007874             100               0                 Open   ;
 f2t3                 N2                   f2t3Leak                         500     393.7007874             100               0                 Open   ;
 f2t3_L               f2t3Leak             N3                               500     393.7007874             100               0                 Open   ;
 f3t2                 N3                   f3t2Leak                         500     393.7007874             100               0                 Open   ;
 f3t2_L               f3t2Leak             N2                               500     393.7007874             100               0                 Open   ;
 f3t4                 N3                   f3t4Leak                         500     393.7007874             100               0                 Open   ;
 f3t4_L               f3t4Leak             N4                               500     393.7007874             100               0                 Open   ;
 f4t3                 N4                   f4t3Leak                         500     393.7007874             100               0                 Open   ;
 f4t3_L               f4t3Leak             N3                               500     393.7007874             100               0                 Open   ;
 f4t11                N4                   f4t11Leak                        500     393.7007874             100               0                 Open   ;
 f4t11_L              f4t11Leak            N11                              500     393.7007874             100               0                 Open   ;
 f4t5                 N4                   f4t5Leak                         500     393.7007874             100               0                 Open   ;
 f4t5_L               f4t5Leak             N5                               500     393.7007874             100               0                 Open   ;
 f5t4                 N5                   f5t4Leak                         500     393.7007874             100               0                 Open   ;
 f5t4_L               f5t4Leak             N4                               500     393.7007874             100               0                 Open   ;
 f5t6                 N5                   f5t6Leak                         500     393.7007874             100               0                 Open   ;
 f5t6_L               f5t6Leak             N6                               500     393.7007874             100               0                 Open   ;
 f5t12                N5                   f5t12Leak                        500     393.7007874             100               0                 Open   ;
 f5t12_L              f5t12Leak            N12                              500     393.7007874             100               0                 Open   ;
 f6t5                 N6                   f6t5Leak                         500     393.7007874             100               0                 Open   ;
 f6t5_L               f6t5Leak             N5                               500     393.7007874             100               0                 Open   ;
 f6t13                N6                   f6t13Leak                        500     393.7007874             100               0                 Open   ;
 f6t13_L              f6t13Leak            N13                              500     393.7007874             100               0                 Open   ;
 f7t0                 N7                   f7t0Leak                         500     393.7007874             100               0                 Open   ;
 f7t0_L               f7t0Leak             N0                               500     393.7007874             100               0                 Open   ;
 f7t8                 N7                   f7t8Leak                         500     393.7007874             100               0                 Open   ;
 f7t8_L               f7t8Leak             N8                               500     393.7007874             100               0                 Open   ;
 f7t14                N7                   f7t14Leak                        500     393.7007874             100               0                 Open   ;
 f7t14_L              f7t14Leak            N14                              500     393.7007874             100               0                 Open   ;
 f8t7                 N8                   f8t7Leak                         500     393.7007874             100               0                 Open   ;
 f8t7_L               f8t7Leak             N7                               500     393.7007874             100               0                 Open   ;
 f8t1                 N8                   f8t1Leak                         500     393.7007874             100               0                 Open   ;
 f8t1_L               f8t1Leak             N1                               500     393.7007874             100               0                 Open   ;
 f8t9                 N8                   f8t9Leak                         500     393.7007874             100               0                 Open   ;
 f8t9_L               f8t9Leak             N9                               500     393.7007874             100               0                 Open   ;
 f9t2                 N9                   f9t2Leak                         500     393.7007874             100               0                 Open   ;
 f9t2_L               f9t2Leak             N2                               500     393.7007874             100               0                 Open   ;
 f9t8                 N9                   f9t8Leak                         500     393.7007874             100               0                 Open   ;
 f9t8_L               f9t8Leak             N8                               500     393.7007874             100               0                 Open   ;
 f9t16                N9                   f9t16Leak                        500     393.7007874             100               0                 Open   ;
 f9t16_L              f9t16Leak            N16                              500     393.7007874             100               0                 Open   ;
 f11t4                N11                  f11t4Leak                        500     393.7007874             100               0                 Open   ;
 f11t4_L              f11t4Leak            N4                               500     393.7007874             100               0                 Open   ;
 f11t18               N11                  f11t18Leak                       500     393.7007874             100               0                 Open   ;
 f11t18_L             f11t18Leak           N18                              500     393.7007874             100               0                 Open   ;
 f11t12               N11                  f11t12Leak                       500     393.7007874             100               0                 Open   ;
 f11t12_L             f11t12Leak           N12                              500     393.7007874             100               0                 Open   ;
 f12t5                N12                  f12t5Leak                        500     393.7007874             100               0                 Open   ;
 f12t5_L              f12t5Leak            N5                               500     393.7007874             100               0                 Open   ;
 f12t11               N12                  f12t11Leak                       500     393.7007874             100               0                 Open   ;
 f12t11_L             f12t11Leak           N11                              500     393.7007874             100               0                 Open   ;
 f12t13               N12                  f12t13Leak                       500     393.7007874             100               0                 Open   ;
 f12t13_L             f12t13Leak           N13                              500     393.7007874             100               0                 Open   ;
 f12t19               N12                  f12t19Leak                       500     393.7007874             100               0                 Open   ;
 f12t19_L             f12t19Leak           N19                              500     393.7007874             100               0                 Open   ;
 f13t6                N13                  f13t6Leak                        500     393.7007874             100               0                 Open   ;
 f13t6_L              f13t6Leak            N6                               500     393.7007874             100               0                 Open   ;
 f13t12               N13                  f13t12Leak                       500     393.7007874             100               0                 Open   ;
 f13t12_L             f13t12Leak           N12                              500     393.7007874             100               0                 Open   ;
 f13t20               N13                  f13t20Leak                       500     393.7007874             100               0                 Open   ;
 f13t20_L             f13t20Leak           N20                              500     393.7007874             100               0                 Open   ;
 f14t7                N14                  f14t7Leak                        500     393.7007874             100               0                 Open   ;
 f14t7_L              f14t7Leak            N7                               500     393.7007874             100               0                 Open   ;
 f14t15               N14                  f14t15Leak                       500     393.7007874             100               0                 Open   ;
 f14t15_L             f14t15Leak           N15                              500     393.7007874             100               0                 Open   ;
 f15t14               N15                  f15t14Leak                       500     393.7007874             100               0                 Open   ;
 f15t14_L             f15t14Leak           N14                              500     393.7007874             100               0                 Open   ;
 f15t16               N15                  f15t16Leak                       500     393.7007874             100               0                 Open   ;
 f15t16_L             f15t16Leak           N16                              500     393.7007874             100               0                 Open   ;
 f16t9                N16                  f16t9Leak                        500     393.7007874             100               0                 Open   ;
 f16t9_L              f16t9Leak            N9                               500     393.7007874             100               0                 Open   ;
 f16t15               N16                  f16t15Leak                       500     393.7007874             100               0                 Open   ;
 f16t15_L             f16t15Leak           N15                              500     393.7007874             100               0                 Open   ;
 f16t17               N16                  f16t17Leak                       500     393.7007874             100               0                 Open   ;
 f16t17_L             f16t17Leak           N17                              500     393.7007874             100               0                 Open   ;
 f17t16               N17                  f17t16Leak                       500     393.7007874             100               0                 Open   ;
 f17t16_L             f17t16Leak           N16                              500     393.7007874             100               0                 Open   ;
 f17t18               N17                  f17t18Leak                       500     393.7007874             100               0                 Open   ;
 f17t18_L             f17t18Leak           N18                              500     393.7007874             100               0                 Open   ;
 f18t17               N18                  f18t17Leak                       500     393.7007874             100               0                 Open   ;
 f18t17_L             f18t17Leak           N17                              500     393.7007874             100               0                 Open   ;
 f18t11               N18                  f18t11Leak                       500     393.7007874             100               0                 Open   ;
 f18t11_L             f18t11Leak           N11                              500     393.7007874             100               0                 Open   ;
 f18t19               N18                  f18t19Leak                       500     393.7007874             100               0                 Open   ;
 f18t19_L             f18t19Leak           N19                              500     393.7007874             100               0                 Open   ;
 f19t18               N19                  f19t18Leak                       500     393.7007874             100               0                 Open   ;
 f19t18_L             f19t18Leak           N18                              500     393.7007874             100               0                 Open   ;
 f19t12               N19                  f19t12Leak                       500     393.7007874             100               0                 Open   ;
 f19t12_L             f19t12Leak           N12                              500     393.7007874             100               0                 Open   ;
 f19t20               N19                  f19t20Leak                       500     393.7007874             100               0                 Open   ;
 f19t20_L             f19t20Leak           N20                              500     393.7007874             100               0                 Open   ;
 f20t13               N20                  f20t13Leak                       500     393.7007874             100               0                 Open   ;
 f20t13_L             f20t13Leak           N13                              500     393.7007874             100               0                 Open   ;
 f20t19               N20                  f20t19Leak                       500     393.7007874             100               0                 Open   ;
 f20t19_L             f20t19Leak           N19                              500     393.7007874             100               0                 Open   ;

[PUMPS]
;ID                   Node1                Node2                Properties          
 pumpf2pumpt2         RES2                 PWFn2                POWER    0.06705110444219038    ;
 pumpf4pumpt4         RES4                 PWFn4                POWER    0.06705110444219038    ;
 pumpf16pumpt16       RES16                PWFn16               POWER    0.06705110444219038    ;
 pumpf20pumpt20       RES20                PWFn20               POWER    0.06705110444219038    ;

[VALVES]
;ID                   Node1                Node2                            Diameter Type              Setting           Minor Loss
 v01                  N0                   N1                                12 FCV                0               0   ;
 v10                  N1                   N0                                12 FCV                0               0   ;
 v07                  N0                   N7                                12 FCV                0               0   ;
 v70                  N7                   N0                                12 FCV                0               0   ;
 v18                  N1                   N8                                12 FCV                0               0   ;
 v81                  N8                   N1                                12 FCV                0               0   ;
 v12                  N1                   N2                                12 FCV                0               0   ;
 v21                  N2                   N1                                12 FCV                0               0   ;
 v29                  N2                   N9                                12 FCV                0               0   ;
 v92                  N9                   N2                                12 FCV                0               0   ;
 v23                  N2                   N3                                12 FCV                0               0   ;
 v32                  N3                   N2                                12 FCV                0               0   ;
 v34                  N3                   N4                                12 FCV                0               0   ;
 v43                  N4                   N3                                12 FCV                0               0   ;
 v411                 N4                   N11                               12 FCV                0               0   ;
 v114                 N11                  N4                                12 FCV                0               0   ;
 v45                  N4                   N5                                12 FCV                0               0   ;
 v54                  N5                   N4                                12 FCV                0               0   ;
 v56                  N5                   N6                                12 FCV                0               0   ;
 v65                  N6                   N5                                12 FCV                0               0   ;
 v512                 N5                   N12                               12 FCV                0               0   ;
 v125                 N12                  N5                                12 FCV                0               0   ;
 v613                 N6                   N13                               12 FCV                0               0   ;
 v136                 N13                  N6                                12 FCV                0               0   ;
 v78                  N7                   N8                                12 FCV                0               0   ;
 v87                  N8                   N7                                12 FCV                0               0   ;
 v714                 N7                   N14                               12 FCV                0               0   ;
 v147                 N14                  N7                                12 FCV                0               0   ;
 v89                  N8                   N9                                12 FCV                0               0   ;
 v98                  N9                   N8                                12 FCV                0               0   ;